
**** 02/21/21 09:34:23 ******* PSpice 17.4.0 (Nov 2018) ******* ID# 0 ********

 * Using subcircuit command:


 ****     CIRCUIT DESCRIPTION


******************************************************************************



V1 1 0 sin(0 20 1.5k)
R1 1 2 1e-3
X1 2 0 3 tsection
X2 3 0 4 tsection
X3 4 0 5 tsection
X4 5 0 6 tsection
X5 6 0 7 tsection
X6 7 0 8 tsection
X7 8 0 9 tsection
X8 9 0 10 tsection
X9 10 0 11 tsection
X10 11 0 12 tsection
X11 12 0 13 tsection
X12 13 0 14 tsection
R2 14 0 89.3
.subckt tsection 1 6 5
R1 1 2 5
L1 2 3 2m
C1 3 6 0.47u
R2 3 6 1e4
R3 3 4 5
L2 4 5 2m
.ends tsection
.tran 0 10ms [0 100ns]
.probe


**** 02/21/21 09:34:23 ******* PSpice 17.4.0 (Nov 2018) ******* ID# 0 ********

 * Using subcircuit command:


 ****     INITIAL TRANSIENT SOLUTION       TEMPERATURE =   27.000 DEG C


******************************************************************************



 NODE   VOLTAGE     NODE   VOLTAGE     NODE   VOLTAGE     NODE   VOLTAGE


(    1)    0.0000  (    2)    0.0000  (    3)    0.0000  (    4)    0.0000      

(    5)    0.0000  (    6)    0.0000  (    7)    0.0000  (    8)    0.0000      

(    9)    0.0000  (   10)    0.0000  (   11)    0.0000  (   12)    0.0000      

(   13)    0.0000  (   14)    0.0000  ( X1.2)    0.0000  ( X1.3)    0.0000      

( X1.4)    0.0000  ( X2.2)    0.0000  ( X2.3)    0.0000  ( X2.4)    0.0000      

( X3.2)    0.0000  ( X3.3)    0.0000  ( X3.4)    0.0000  ( X4.2)    0.0000      

( X4.3)    0.0000  ( X4.4)    0.0000  ( X5.2)    0.0000  ( X5.3)    0.0000      

( X5.4)    0.0000  ( X6.2)    0.0000  ( X6.3)    0.0000  ( X6.4)    0.0000      

( X7.2)    0.0000  ( X7.3)    0.0000  ( X7.4)    0.0000  ( X8.2)    0.0000      

( X8.3)    0.0000  ( X8.4)    0.0000  ( X9.2)    0.0000  ( X9.3)    0.0000      

( X9.4)    0.0000  (X10.2)    0.0000  (X10.3)    0.0000  (X10.4)    0.0000      

(X11.2)    0.0000  (X11.3)    0.0000  (X11.4)    0.0000  (X12.2)    0.0000      

(X12.3)    0.0000  (X12.4)    0.0000  




    VOLTAGE SOURCE CURRENTS
    NAME         CURRENT

    V1           0.000E+00

    TOTAL POWER DISSIPATION   0.00E+00  WATTS



          JOB CONCLUDED

**** 02/21/21 09:34:23 ******* PSpice 17.4.0 (Nov 2018) ******* ID# 0 ********

 * Using subcircuit command:


 ****     JOB STATISTICS SUMMARY


******************************************************************************



  Total job time (using Solver 1)   =       11.58
