Circuit: * C:\Users\verma\Desktop\Analog\Exp-7\Beta_multiplier.asc

Warning: Pd = 0 is less than W.
Warning: Ps = 0 is less than W.
Warning: Pd = 0 is less than W.
Warning: Ps = 0 is less than W.
Warning: Pd = 0 is less than W.
Warning: Ps = 0 is less than W.
.OP point found by inspection.

Date: Fri May 07 17:08:39 2021
Total elapsed time: 0.171 seconds.

tnom = 27
temp = 27
method = trap
totiter = 10000
traniter = 0
tranpoints = 0
accept = 0
rejected = 0
matrix size = 5
fillins = 0
solver = Normal
Matrix Compiler1: 266 bytes object code size  0.1/0.1/[0.0]
Matrix Compiler2: 383 bytes object code size  0.1/0.1/[0.0]

