
**** 02/28/21 10:47:29 ******* PSpice 17.4.0 (Nov 2018) ******* ID# 0 ********

 % transient response observed for input pulse voltage


 ****     CIRCUIT DESCRIPTION


******************************************************************************



V1 1 0 PULSE(0 20 10u 10n 10n 2n 500u)
T1 1 0 2 0 TD=10e-6 Zo=50
T2 2 0 3 0 TD=10e-6 Zo=50
T3 3 0 4 0 TD=10e-6 Zo=50
T4 4 0 5 0 TD=10e-6 Zo=50
R 5 0  1Meg
.tran 0 1000u [0 5u]
.probe
.end

**** 02/28/21 10:47:29 ******* PSpice 17.4.0 (Nov 2018) ******* ID# 0 ********

 % transient response observed for input pulse voltage


 ****     INITIAL TRANSIENT SOLUTION       TEMPERATURE =   27.000 DEG C


******************************************************************************



 NODE   VOLTAGE     NODE   VOLTAGE     NODE   VOLTAGE     NODE   VOLTAGE


(    1)    0.0000  (    2)    0.0000  (    3)    0.0000  (    4)    0.0000      

(    5)    0.0000  




    VOLTAGE SOURCE CURRENTS
    NAME         CURRENT

    V1           0.000E+00

    TOTAL POWER DISSIPATION   0.00E+00  WATTS



          JOB CONCLUDED

**** 02/28/21 10:47:29 ******* PSpice 17.4.0 (Nov 2018) ******* ID# 0 ********

 % transient response observed for input pulse voltage


 ****     JOB STATISTICS SUMMARY


******************************************************************************



  License check-out time            =         .70
  Total job time (using Solver 1)   =         .19
