Circuit: * C:\Users\verma\Desktop\Analog\EXP-1\NMOS.asc

.OP point found by inspection.
.step v1=0
.step v1=0.5
.step v1=1
.step v1=1.5
.step v1=2
.step v1=2.5
.step v1=3

Date: Fri Apr 02 14:09:33 2021
Total elapsed time: 2.182 seconds.

tnom = 27
temp = 27
method = trap
totiter = 420026
traniter = 0
tranpoints = 0
accept = 0
rejected = 0
matrix size = 4
fillins = 0
solver = Normal
Matrix Compiler1:       7 opcodes  0.1/[0.1]/0.1
Matrix Compiler2: 216 bytes object code size  0.1/0.1/[0.1]

