Circuit: * C:\Users\verma\Desktop\Analog\EXP-1\Pmos.asc

.dc sweep increment has wrong sign -- fixing...
.dc sweep increment has wrong sign -- fixing...
.OP point found by inspection.
.step v1=0
.step v1=-1
.step v1=-2
.step v1=-3

Date: Fri Apr 02 14:11:48 2021
Total elapsed time: 1.058 seconds.

tnom = 27
temp = 27
method = trap
totiter = 240013
traniter = 0
tranpoints = 0
accept = 0
rejected = 0
matrix size = 4
fillins = 0
solver = Normal
Matrix Compiler1:       7 opcodes  0.1/[0.1]/0.1
Matrix Compiler2:      20 opcodes  0.1/[0.1]/0.1

