Circuit: * C:\Users\verma\Desktop\Analog\EXP-5\IdealOPamp_subtractor.asc

Direct Newton iteration for .op point succeeded.

Date: Fri May 07 10:42:11 2021
Total elapsed time: 0.094 seconds.

tnom = 27
temp = 27
method = modified trap
totiter = 2103
traniter = 2092
tranpoints = 1047
accept = 1047
rejected = 0
matrix size = 15
fillins = 2
solver = Normal
Matrix Compiler1: 792 bytes object code size  0.2/0.1/[0.1]
Matrix Compiler2: 1.36 KB object code size  0.1/0.2/[0.1]

