Circuit: * C:\Users\verma\Desktop\Analog\Exp-8\SH_NMOS_Pulse.asc

Warning: Pd = 0 is less than W.
Warning: Ps = 0 is less than W.
.OP point found by inspection.

Date: Fri May 07 18:06:57 2021
Total elapsed time: 0.141 seconds.

tnom = 27
temp = 27
method = modified trap
totiter = 1809
traniter = 1809
tranpoints = 871
accept = 794
rejected = 77
matrix size = 5
fillins = 0
solver = Normal
Matrix Compiler1: 204 bytes object code size  0.1/0.0/[0.0]
Matrix Compiler2: off  [0.0]/0.1/0.0

