Circuit: * C:\Users\verma\Desktop\Analog\EXP-2\question1\Basic current mirror.asc

WARNING: Less than two connections to node VS.  This node is used by V2.
Direct Newton iteration for .op point succeeded.

Date: Fri Apr 02 14:36:18 2021
Total elapsed time: 0.092 seconds.

tnom = 27
temp = 27
method = modified trap
totiter = 420
traniter = 414
tranpoints = 208
accept = 138
rejected = 70
matrix size = 7
fillins = 0
solver = Normal
Matrix Compiler1:       9 opcodes  0.0/[0.0]/0.0
Matrix Compiler2: 319 bytes object code size  0.0/0.0/[0.0]

