Circuit: * C:\Users\verma\Desktop\Analog\EXP-2\question2\Cascode_current_source.asc

WARNING: Less than two connections to node VS.  This node is used by V2.
Direct Newton iteration for .op point succeeded.

Date: Fri Apr 02 14:41:33 2021
Total elapsed time: 0.151 seconds.

tnom = 27
temp = 27
method = modified trap
totiter = 2088
traniter = 2082
tranpoints = 1042
accept = 1042
rejected = 0
matrix size = 9
fillins = 0
solver = Normal
Matrix Compiler1: 322 bytes object code size  0.1/0.1/[0.1]
Matrix Compiler2: off  [0.1]/0.1/0.1

