Circuit: * C:\Users\verma\Desktop\Analog\EXP-3\CommonDrain\Commondrain_ResistorLoad.asc

WARNING: Node N003 is floating.

WARNING: Less than two connections to node N003.  This node is used by M1.
WARNING: Less than two connections to node NC_01.  This node is used by V3.
Warning: Pd = 0 is less than W.
Warning: Ps = 0 is less than W.
Direct Newton iteration for .op point succeeded.

Date: Fri Apr 02 14:43:54 2021
Total elapsed time: 0.103 seconds.

tnom = 27
temp = 27
method = modified trap
totiter = 2105
traniter = 2082
tranpoints = 1042
accept = 1042
rejected = 0
matrix size = 8
fillins = 0
solver = Normal
Matrix Compiler1: 282 bytes object code size  0.1/0.1/[0.1]
Matrix Compiler2: 542 bytes object code size  0.1/0.1/[0.1]

