Circuit: * C:\Users\verma\Desktop\Analog\EXP-4\question2\Question2.asc

WARNING: Less than two connections to node V1.  This node is used by V3.
Warning: Pd = 0 is less than W.
Warning: Ps = 0 is less than W.
Warning: Pd = 0 is less than W.
Warning: Ps = 0 is less than W.
Direct Newton iteration for .op point succeeded.

Date: Sat Mar 27 22:08:04 2021
Total elapsed time: 0.104 seconds.

tnom = 27
temp = 27
method = trap
totiter = 6
traniter = 0
tranpoints = 0
accept = 0
rejected = 0
matrix size = 21
fillins = 6
solver = Normal
Matrix Compiler1:      66 opcodes
Matrix Compiler2: 1.77 KB object code size
